 
  ===>>> : E R R O R
 
          ===========
 
  chkerr
  Netcdf Error in read_obfbdata
  at line number     1675
 No such file or directory
 
 
  ===>>> : E R R O R
 
          ===========
 
  chkerr
  Netcdf Error in read_obfbdata
  at line number     1680
 NetCDF: Not a valid ID
 
 
  ===>>> : E R R O R
 
          ===========
 
  chkerr
  Netcdf Error in read_obfbdata
  at line number     1682
 NetCDF: Not a valid ID
 
 
  ===>>> : E R R O R
 
          ===========
 
  chkerr
  Netcdf Error in read_obfbdata
  at line number     1684
 NetCDF: Not a valid ID
 
 
  ===>>> : E R R O R
 
          ===========
 
  chkerr
  Netcdf Error in read_obfbdata
  at line number     1686
 NetCDF: Not a valid ID
 
 
  ===>>> : E R R O R
 
          ===========
 
  chkerr
  Netcdf Error in read_obfbdata
  at line number     1688
 NetCDF: Not a valid ID
 
 
  ===>>> : E R R O R
 
          ===========
 
  chkerr
  Netcdf Error in read_obfbdata
  at line number     1690
 NetCDF: Not a valid ID
 
 
  ===>>> : E R R O R
 
          ===========
 
  chkerr
  Netcdf Error in read_obfbdata
  at line number     1745
 NetCDF: Not a valid ID
 
 
  ===>>> : E R R O R
 
          ===========
 
  chkerr
  Netcdf Error in read_obfbdata
  at line number     1747
 NetCDF: Not a valid ID
 
 
  ===>>> : E R R O R
 
          ===========
 
  chkerr
  Netcdf Error in read_obfbdata
  at line number     1762
 NetCDF: Not a valid ID
 
 
  ===>>> : E R R O R
 
          ===========
 
  chkerr
  Netcdf Error in read_obfbdata
  at line number     1764
 NetCDF: Not a valid ID
 
 
  ===>>> : E R R O R
 
          ===========
 
  chkerr
  Netcdf Error in read_obfbdata
  at line number     1769
 NetCDF: Not a valid ID
 
 
  ===>>> : E R R O R
 
          ===========
 
  chkerr
  Netcdf Error in read_obfbdata
  at line number     1771
 NetCDF: Not a valid ID
 
 
  ===>>> : E R R O R
 
          ===========
 
  chkerr
  Netcdf Error in read_obfbdata
  at line number     1773
 NetCDF: Not a valid ID
 
 
  ===>>> : E R R O R
 
          ===========
 
  chkerr
  Netcdf Error in read_obfbdata
  at line number     1775
 NetCDF: Not a valid ID
 
 
  ===>>> : E R R O R
 
          ===========
 
  chkerr
  Netcdf Error in read_obfbdata
  at line number     1777
 NetCDF: Not a valid ID
 
 
  ===>>> : E R R O R
 
          ===========
 
  chkerr
  Netcdf Error in read_obfbdata
  at line number     1779
 NetCDF: Not a valid ID
 
 
  ===>>> : E R R O R
 
          ===========
 
  chkerr
  Netcdf Error in read_obfbdata
  at line number     1781
 NetCDF: Not a valid ID
 
 
  ===>>> : E R R O R
 
          ===========
 
  chkerr
  Netcdf Error in read_obfbdata
  at line number     1783
 NetCDF: Not a valid ID
 
 
  ===>>> : E R R O R
 
          ===========
 
  chkerr
  Netcdf Error in read_obfbdata
  at line number     1785
 NetCDF: Not a valid ID
 
 
  ===>>> : E R R O R
 
          ===========
 
  chkerr
  Netcdf Error in read_obfbdata
  at line number     1787
 NetCDF: Not a valid ID
 
 
  ===>>> : E R R O R
 
          ===========
 
  chkerr
  Netcdf Error in read_obfbdata
  at line number     1789
 NetCDF: Not a valid ID
 
 
  ===>>> : E R R O R
 
          ===========
 
  chkerr
  Netcdf Error in read_obfbdata
  at line number     1791
 NetCDF: Not a valid ID
 
 
  ===>>> : E R R O R
 
          ===========
 
  chkerr
  Netcdf Error in read_obfbdata
  at line number     1793
 NetCDF: Not a valid ID
 
 
  ===>>> : E R R O R
 
          ===========
 
  chkerr
  Netcdf Error in read_obfbdata
  at line number     1795
 NetCDF: Not a valid ID
 
 
  ===>>> : E R R O R
 
          ===========
 
  chkerr
  Netcdf Error in read_obfbdata
  at line number     1797
 NetCDF: Not a valid ID
 
 
  ===>>> : E R R O R
 
          ===========
 
  chkerr
  Netcdf Error in read_obfbdata
  at line number     1799
 NetCDF: Not a valid ID
 
 
  ===>>> : E R R O R
 
          ===========
 
  chkerr
  Netcdf Error in read_obfbdata
  at line number     1801
 NetCDF: Not a valid ID
 
 
  ===>>> : E R R O R
 
          ===========
 
  chkerr
  Netcdf Error in read_obfbdata
  at line number     1803
 NetCDF: Not a valid ID
 
 
  ===>>> : E R R O R
 
          ===========
 
  chkerr
  Netcdf Error in read_obfbdata
  at line number     1805
 NetCDF: Not a valid ID
 
 
  ===>>> : E R R O R
 
          ===========
 
  chkerr
  Netcdf Error in read_obfbdata
  at line number     1807
 NetCDF: Not a valid ID
 
 
  ===>>> : E R R O R
 
          ===========
 
  chkerr
  Netcdf Error in read_obfbdata
  at line number     1809
 NetCDF: Not a valid ID
 
 
  ===>>> : E R R O R
 
          ===========
 
  chkerr
  Netcdf Error in read_obfbdata
  at line number     1811
 NetCDF: Not a valid ID
 
 
  ===>>> : E R R O R
 
          ===========
 
  chkerr
  Netcdf Error in read_obfbdata
  at line number     1813
 NetCDF: Not a valid ID
 
 
  ===>>> : E R R O R
 
          ===========
 
  chkerr
  Netcdf Error in read_obfbdata
  at line number     1815
 NetCDF: Not a valid ID
 
 
  ===>>> : E R R O R
 
          ===========
 
  chkerr
  Netcdf Error in read_obfbdata
  at line number     1817
 NetCDF: Not a valid ID
 
 
  ===>>> : E R R O R
 
          ===========
 
  chkerr
  Netcdf Error in read_obfbdata
  at line number     1819
 NetCDF: Not a valid ID
 
 
  ===>>> : E R R O R
 
          ===========
 
  chkerr
  Netcdf Error in read_obfbdata
  at line number     1821
 NetCDF: Not a valid ID
 
 
  ===>>> : E R R O R
 
          ===========
 
  chkerr
  Netcdf Error in read_obfbdata
  at line number     1823
 NetCDF: Not a valid ID
 
 
  ===>>> : E R R O R
 
          ===========
 
  chkerr
  Netcdf Error in read_obfbdata
  at line number     1825
 NetCDF: Not a valid ID
 
 
  ===>>> : E R R O R
 
          ===========
 
  chkerr
  Netcdf Error in read_obfbdata
  at line number     1827
 NetCDF: Not a valid ID
 
 
  ===>>> : E R R O R
 
          ===========
 
  chkerr
  Netcdf Error in read_obfbdata
  at line number     1835
 NetCDF: Not a valid ID
 
 
  ===>>> : E R R O R
 
          ===========
 
  chkerr
  Netcdf Error in read_obfbdata
  at line number     1838
 NetCDF: Not a valid ID
 
 
  ===>>> : E R R O R
 
          ===========
 
  chkerr
  Netcdf Error in getvaratt_obfbdata
  at line number     1990
 NetCDF: Not a valid ID
 
 
  ===>>> : E R R O R
 
          ===========
 
  chkerr
  Netcdf Error in getvaratt_obfbdata
  at line number     1994
 NetCDF: Not a valid ID
 
 
  ===>>> : E R R O R
 
          ===========
 
  chkerr
  Netcdf Error in read_obfbdata
  at line number     1860
 NetCDF: Not a valid ID
 
 
  ===>>> : E R R O R
 
          ===========
 
  chkerr
  Netcdf Error in read_obfbdata
  at line number     1863
 NetCDF: Not a valid ID
 
 
  ===>>> : E R R O R
 
          ===========
 
  chkerr
  Netcdf Error in read_obfbdata
  at line number     1866
 NetCDF: Not a valid ID
 
 
  ===>>> : E R R O R
 
          ===========
 
  chkerr
  Netcdf Error in read_obfbdata
  at line number     1869
 NetCDF: Not a valid ID
 
 
  ===>>> : E R R O R
 
          ===========
 
  chkerr
  Netcdf Error in read_obfbdata
  at line number     1872
 NetCDF: Not a valid ID
 
 
  ===>>> : E R R O R
 
          ===========
 
  chkerr
  Netcdf Error in read_obfbdata
  at line number     1875
 NetCDF: Not a valid ID
 
 
  ===>>> : E R R O R
 
          ===========
 
  chkerr
  Netcdf Error in read_obfbdata
  at line number     1878
 NetCDF: Not a valid ID
 
 
  ===>>> : E R R O R
 
          ===========
 
  chkerr
  Netcdf Error in read_obfbdata
  at line number     1881
 NetCDF: Not a valid ID
 
 
  ===>>> : E R R O R
 
          ===========
 
  chkerr
  Netcdf Error in read_obfbdata
  at line number     1835
 NetCDF: Not a valid ID
 
 
  ===>>> : E R R O R
 
          ===========
 
  chkerr
  Netcdf Error in read_obfbdata
  at line number     1838
 NetCDF: Not a valid ID
 
 
  ===>>> : E R R O R
 
          ===========
 
  chkerr
  Netcdf Error in getvaratt_obfbdata
  at line number     1990
 NetCDF: Not a valid ID
 
 
  ===>>> : E R R O R
 
          ===========
 
  chkerr
  Netcdf Error in getvaratt_obfbdata
  at line number     1994
 NetCDF: Not a valid ID
 
 
  ===>>> : E R R O R
 
          ===========
 
  chkerr
  Netcdf Error in read_obfbdata
  at line number     1860
 NetCDF: Not a valid ID
 
 
  ===>>> : E R R O R
 
          ===========
 
  chkerr
  Netcdf Error in read_obfbdata
  at line number     1863
 NetCDF: Not a valid ID
 
 
  ===>>> : E R R O R
 
          ===========
 
  chkerr
  Netcdf Error in read_obfbdata
  at line number     1866
 NetCDF: Not a valid ID
 
 
  ===>>> : E R R O R
 
          ===========
 
  chkerr
  Netcdf Error in read_obfbdata
  at line number     1869
 NetCDF: Not a valid ID
 
 
  ===>>> : E R R O R
 
          ===========
 
  chkerr
  Netcdf Error in read_obfbdata
  at line number     1872
 NetCDF: Not a valid ID
 
 
  ===>>> : E R R O R
 
          ===========
 
  chkerr
  Netcdf Error in read_obfbdata
  at line number     1875
 NetCDF: Not a valid ID
 
 
  ===>>> : E R R O R
 
          ===========
 
  chkerr
  Netcdf Error in read_obfbdata
  at line number     1878
 NetCDF: Not a valid ID
 
 
  ===>>> : E R R O R
 
          ===========
 
  chkerr
  Netcdf Error in read_obfbdata
  at line number     1881
 NetCDF: Not a valid ID
 
 
  ===>>> : E R R O R
 
          ===========
 
  chkerr
  Netcdf Error in read_obfbdata
  at line number     1835
 NetCDF: Not a valid ID
 
 
  ===>>> : E R R O R
 
          ===========
 
  chkerr
  Netcdf Error in read_obfbdata
  at line number     1838
 NetCDF: Not a valid ID
 
 
  ===>>> : E R R O R
 
          ===========
 
  chkerr
  Netcdf Error in getvaratt_obfbdata
  at line number     1990
 NetCDF: Not a valid ID
 
 
  ===>>> : E R R O R
 
          ===========
 
  chkerr
  Netcdf Error in getvaratt_obfbdata
  at line number     1994
 NetCDF: Not a valid ID
 
 
  ===>>> : E R R O R
 
          ===========
 
  chkerr
  Netcdf Error in read_obfbdata
  at line number     1860
 NetCDF: Not a valid ID
 
 
  ===>>> : E R R O R
 
          ===========
 
  chkerr
  Netcdf Error in read_obfbdata
  at line number     1863
 NetCDF: Not a valid ID
 
 
  ===>>> : E R R O R
 
          ===========
 
  chkerr
  Netcdf Error in read_obfbdata
  at line number     1866
 NetCDF: Not a valid ID
 
 
  ===>>> : E R R O R
 
          ===========
 
  chkerr
  Netcdf Error in read_obfbdata
  at line number     1869
 NetCDF: Not a valid ID
 
 
  ===>>> : E R R O R
 
          ===========
 
  chkerr
  Netcdf Error in read_obfbdata
  at line number     1872
 NetCDF: Not a valid ID
 
 
  ===>>> : E R R O R
 
          ===========
 
  chkerr
  Netcdf Error in read_obfbdata
  at line number     1875
 NetCDF: Not a valid ID
 
 
  ===>>> : E R R O R
 
          ===========
 
  chkerr
  Netcdf Error in read_obfbdata
  at line number     1878
 NetCDF: Not a valid ID
 
 
  ===>>> : E R R O R
 
          ===========
 
  chkerr
  Netcdf Error in read_obfbdata
  at line number     1881
 NetCDF: Not a valid ID
 
 
  ===>>> : E R R O R
 
          ===========
 
  chkerr
  Netcdf Error in read_obfbdata
  at line number     1835
 NetCDF: Not a valid ID
 
 
  ===>>> : E R R O R
 
          ===========
 
  chkerr
  Netcdf Error in read_obfbdata
  at line number     1838
 NetCDF: Not a valid ID
 
 
  ===>>> : E R R O R
 
          ===========
 
  chkerr
  Netcdf Error in getvaratt_obfbdata
  at line number     1990
 NetCDF: Not a valid ID
 
 
  ===>>> : E R R O R
 
          ===========
 
  chkerr
  Netcdf Error in getvaratt_obfbdata
  at line number     1994
 NetCDF: Not a valid ID
 
 
  ===>>> : E R R O R
 
          ===========
 
  chkerr
  Netcdf Error in read_obfbdata
  at line number     1860
 NetCDF: Not a valid ID
 
 
  ===>>> : E R R O R
 
          ===========
 
  chkerr
  Netcdf Error in read_obfbdata
  at line number     1863
 NetCDF: Not a valid ID
 
 
  ===>>> : E R R O R
 
          ===========
 
  chkerr
  Netcdf Error in read_obfbdata
  at line number     1866
 NetCDF: Not a valid ID
 
 
  ===>>> : E R R O R
 
          ===========
 
  chkerr
  Netcdf Error in read_obfbdata
  at line number     1869
 NetCDF: Not a valid ID
 
 
  ===>>> : E R R O R
 
          ===========
 
  chkerr
  Netcdf Error in read_obfbdata
  at line number     1872
 NetCDF: Not a valid ID
 
 
  ===>>> : E R R O R
 
          ===========
 
  chkerr
  Netcdf Error in read_obfbdata
  at line number     1875
 NetCDF: Not a valid ID
 
 
  ===>>> : E R R O R
 
          ===========
 
  chkerr
  Netcdf Error in read_obfbdata
  at line number     1878
 NetCDF: Not a valid ID
 
 
  ===>>> : E R R O R
 
          ===========
 
  chkerr
  Netcdf Error in read_obfbdata
  at line number     1881
 NetCDF: Not a valid ID
 
 
  ===>>> : E R R O R
 
          ===========
 
  chkerr
  Netcdf Error in read_obfbdata
  at line number     1835
 NetCDF: Not a valid ID
 
 
  ===>>> : E R R O R
 
          ===========
 
  chkerr
  Netcdf Error in read_obfbdata
  at line number     1838
 NetCDF: Not a valid ID
 
 
  ===>>> : E R R O R
 
          ===========
 
  chkerr
  Netcdf Error in getvaratt_obfbdata
  at line number     1990
 NetCDF: Not a valid ID
 
 
  ===>>> : E R R O R
 
          ===========
 
  chkerr
  Netcdf Error in getvaratt_obfbdata
  at line number     1994
 NetCDF: Not a valid ID
 
 
  ===>>> : E R R O R
 
          ===========
 
  chkerr
  Netcdf Error in read_obfbdata
  at line number     1860
 NetCDF: Not a valid ID
 
 
  ===>>> : E R R O R
 
          ===========
 
  chkerr
  Netcdf Error in read_obfbdata
  at line number     1863
 NetCDF: Not a valid ID
 
 
  ===>>> : E R R O R
 
          ===========
 
  chkerr
  Netcdf Error in read_obfbdata
  at line number     1866
 NetCDF: Not a valid ID
 
 
  ===>>> : E R R O R
 
          ===========
 
  chkerr
  Netcdf Error in read_obfbdata
  at line number     1869
 NetCDF: Not a valid ID
 
 
  ===>>> : E R R O R
 
          ===========
 
  chkerr
  Netcdf Error in read_obfbdata
  at line number     1872
 NetCDF: Not a valid ID
 
 
  ===>>> : E R R O R
 
          ===========
 
  chkerr
  Netcdf Error in read_obfbdata
  at line number     1875
 NetCDF: Not a valid ID
 
 
  ===>>> : E R R O R
 
          ===========
 
  chkerr
  Netcdf Error in read_obfbdata
  at line number     1878
 NetCDF: Not a valid ID
 
 
  ===>>> : E R R O R
 
          ===========
 
  chkerr
  Netcdf Error in read_obfbdata
  at line number     1881
 NetCDF: Not a valid ID
 
 
  ===>>> : E R R O R
 
          ===========
 
  chkerr
  Netcdf Error in read_obfbdata
  at line number     1835
 NetCDF: Not a valid ID
 
 
  ===>>> : E R R O R
 
          ===========
 
  chkerr
  Netcdf Error in read_obfbdata
  at line number     1838
 NetCDF: Not a valid ID
 
 
  ===>>> : E R R O R
 
          ===========
 
  chkerr
  Netcdf Error in getvaratt_obfbdata
  at line number     1990
 NetCDF: Not a valid ID
 
 
  ===>>> : E R R O R
 
          ===========
 
  chkerr
  Netcdf Error in getvaratt_obfbdata
  at line number     1994
 NetCDF: Not a valid ID
 
 
  ===>>> : E R R O R
 
          ===========
 
  chkerr
  Netcdf Error in read_obfbdata
  at line number     1860
 NetCDF: Not a valid ID
 
 
  ===>>> : E R R O R
 
          ===========
 
  chkerr
  Netcdf Error in read_obfbdata
  at line number     1863
 NetCDF: Not a valid ID
 
 
  ===>>> : E R R O R
 
          ===========
 
  chkerr
  Netcdf Error in read_obfbdata
  at line number     1866
 NetCDF: Not a valid ID
 
 
  ===>>> : E R R O R
 
          ===========
 
  chkerr
  Netcdf Error in read_obfbdata
  at line number     1869
 NetCDF: Not a valid ID
 
 
  ===>>> : E R R O R
 
          ===========
 
  chkerr
  Netcdf Error in read_obfbdata
  at line number     1872
 NetCDF: Not a valid ID
 
 
  ===>>> : E R R O R
 
          ===========
 
  chkerr
  Netcdf Error in read_obfbdata
  at line number     1875
 NetCDF: Not a valid ID
 
 
  ===>>> : E R R O R
 
          ===========
 
  chkerr
  Netcdf Error in read_obfbdata
  at line number     1878
 NetCDF: Not a valid ID
 
 
  ===>>> : E R R O R
 
          ===========
 
  chkerr
  Netcdf Error in read_obfbdata
  at line number     1881
 NetCDF: Not a valid ID
 
 
  ===>>> : E R R O R
 
          ===========
 
  chkerr
  Netcdf Error in read_obfbdata
  at line number     1835
 NetCDF: Not a valid ID
 
 
  ===>>> : E R R O R
 
          ===========
 
  chkerr
  Netcdf Error in read_obfbdata
  at line number     1838
 NetCDF: Not a valid ID
 
 
  ===>>> : E R R O R
 
          ===========
 
  chkerr
  Netcdf Error in getvaratt_obfbdata
  at line number     1990
 NetCDF: Not a valid ID
 
 
  ===>>> : E R R O R
 
          ===========
 
  chkerr
  Netcdf Error in getvaratt_obfbdata
  at line number     1994
 NetCDF: Not a valid ID
 
 
  ===>>> : E R R O R
 
          ===========
 
  chkerr
  Netcdf Error in read_obfbdata
  at line number     1860
 NetCDF: Not a valid ID
 
 
  ===>>> : E R R O R
 
          ===========
 
  chkerr
  Netcdf Error in read_obfbdata
  at line number     1863
 NetCDF: Not a valid ID
 
 
  ===>>> : E R R O R
 
          ===========
 
  chkerr
  Netcdf Error in read_obfbdata
  at line number     1866
 NetCDF: Not a valid ID
 
 
  ===>>> : E R R O R
 
          ===========
 
  chkerr
  Netcdf Error in read_obfbdata
  at line number     1869
 NetCDF: Not a valid ID
 
 
  ===>>> : E R R O R
 
          ===========
 
  chkerr
  Netcdf Error in read_obfbdata
  at line number     1872
 NetCDF: Not a valid ID
 
 
  ===>>> : E R R O R
 
          ===========
 
  chkerr
  Netcdf Error in read_obfbdata
  at line number     1875
 NetCDF: Not a valid ID
 
 
  ===>>> : E R R O R
 
          ===========
 
  chkerr
  Netcdf Error in read_obfbdata
  at line number     1878
 NetCDF: Not a valid ID
 
 
  ===>>> : E R R O R
 
          ===========
 
  chkerr
  Netcdf Error in read_obfbdata
  at line number     1881
 NetCDF: Not a valid ID
 
 
  ===>>> : E R R O R
 
          ===========
 
  chkerr
  Netcdf Error in read_obfbdata
  at line number     1965
 NetCDF: Not a valid ID
 
 
  ===>>> : E R R O R
 
          ===========
 
  chkerr
  Netcdf Error in read_obfbdata
  at line number     1675
 No such file or directory
 
 
  ===>>> : E R R O R
 
          ===========
 
  chkerr
  Netcdf Error in read_obfbdata
  at line number     1680
 NetCDF: Not a valid ID
 
 
  ===>>> : E R R O R
 
          ===========
 
  chkerr
  Netcdf Error in read_obfbdata
  at line number     1682
 NetCDF: Not a valid ID
 
 
  ===>>> : E R R O R
 
          ===========
 
  chkerr
  Netcdf Error in read_obfbdata
  at line number     1684
 NetCDF: Not a valid ID
 
 
  ===>>> : E R R O R
 
          ===========
 
  chkerr
  Netcdf Error in read_obfbdata
  at line number     1686
 NetCDF: Not a valid ID
 
 
  ===>>> : E R R O R
 
          ===========
 
  chkerr
  Netcdf Error in read_obfbdata
  at line number     1688
 NetCDF: Not a valid ID
 
 
  ===>>> : E R R O R
 
          ===========
 
  chkerr
  Netcdf Error in read_obfbdata
  at line number     1690
 NetCDF: Not a valid ID
 
 
  ===>>> : E R R O R
 
          ===========
 
  chkerr
  Netcdf Error in read_obfbdata
  at line number     1745
 NetCDF: Not a valid ID
 
 
  ===>>> : E R R O R
 
          ===========
 
  chkerr
  Netcdf Error in read_obfbdata
  at line number     1747
 NetCDF: Not a valid ID
 
 
  ===>>> : E R R O R
 
          ===========
 
  chkerr
  Netcdf Error in read_obfbdata
  at line number     1762
 NetCDF: Not a valid ID
 
 
  ===>>> : E R R O R
 
          ===========
 
  chkerr
  Netcdf Error in read_obfbdata
  at line number     1764
 NetCDF: Not a valid ID
 
 
  ===>>> : E R R O R
 
          ===========
 
  chkerr
  Netcdf Error in read_obfbdata
  at line number     1769
 NetCDF: Not a valid ID
 
 
  ===>>> : E R R O R
 
          ===========
 
  chkerr
  Netcdf Error in read_obfbdata
  at line number     1771
 NetCDF: Not a valid ID
 
 
  ===>>> : E R R O R
 
          ===========
 
  chkerr
  Netcdf Error in read_obfbdata
  at line number     1773
 NetCDF: Not a valid ID
 
 
  ===>>> : E R R O R
 
          ===========
 
  chkerr
  Netcdf Error in read_obfbdata
  at line number     1775
 NetCDF: Not a valid ID
 
 
  ===>>> : E R R O R
 
          ===========
 
  chkerr
  Netcdf Error in read_obfbdata
  at line number     1777
 NetCDF: Not a valid ID
 
 
  ===>>> : E R R O R
 
          ===========
 
  chkerr
  Netcdf Error in read_obfbdata
  at line number     1779
 NetCDF: Not a valid ID
 
 
  ===>>> : E R R O R
 
          ===========
 
  chkerr
  Netcdf Error in read_obfbdata
  at line number     1781
 NetCDF: Not a valid ID
 
 
  ===>>> : E R R O R
 
          ===========
 
  chkerr
  Netcdf Error in read_obfbdata
  at line number     1783
 NetCDF: Not a valid ID
 
 
  ===>>> : E R R O R
 
          ===========
 
  chkerr
  Netcdf Error in read_obfbdata
  at line number     1785
 NetCDF: Not a valid ID
 
 
  ===>>> : E R R O R
 
          ===========
 
  chkerr
  Netcdf Error in read_obfbdata
  at line number     1787
 NetCDF: Not a valid ID
 
 
  ===>>> : E R R O R
 
          ===========
 
  chkerr
  Netcdf Error in read_obfbdata
  at line number     1789
 NetCDF: Not a valid ID
 
 
  ===>>> : E R R O R
 
          ===========
 
  chkerr
  Netcdf Error in read_obfbdata
  at line number     1791
 NetCDF: Not a valid ID
 
 
  ===>>> : E R R O R
 
          ===========
 
  chkerr
  Netcdf Error in read_obfbdata
  at line number     1793
 NetCDF: Not a valid ID
 
 
  ===>>> : E R R O R
 
          ===========
 
  chkerr
  Netcdf Error in read_obfbdata
  at line number     1795
 NetCDF: Not a valid ID
 
 
  ===>>> : E R R O R
 
          ===========
 
  chkerr
  Netcdf Error in read_obfbdata
  at line number     1797
 NetCDF: Not a valid ID
 
 
  ===>>> : E R R O R
 
          ===========
 
  chkerr
  Netcdf Error in read_obfbdata
  at line number     1799
 NetCDF: Not a valid ID
 
 
  ===>>> : E R R O R
 
          ===========
 
  chkerr
  Netcdf Error in read_obfbdata
  at line number     1801
 NetCDF: Not a valid ID
 
 
  ===>>> : E R R O R
 
          ===========
 
  chkerr
  Netcdf Error in read_obfbdata
  at line number     1803
 NetCDF: Not a valid ID
 
 
  ===>>> : E R R O R
 
          ===========
 
  chkerr
  Netcdf Error in read_obfbdata
  at line number     1805
 NetCDF: Not a valid ID
 
 
  ===>>> : E R R O R
 
          ===========
 
  chkerr
  Netcdf Error in read_obfbdata
  at line number     1807
 NetCDF: Not a valid ID
 
 
  ===>>> : E R R O R
 
          ===========
 
  chkerr
  Netcdf Error in read_obfbdata
  at line number     1809
 NetCDF: Not a valid ID
 
 
  ===>>> : E R R O R
 
          ===========
 
  chkerr
  Netcdf Error in read_obfbdata
  at line number     1811
 NetCDF: Not a valid ID
 
 
  ===>>> : E R R O R
 
          ===========
 
  chkerr
  Netcdf Error in read_obfbdata
  at line number     1813
 NetCDF: Not a valid ID
 
 
  ===>>> : E R R O R
 
          ===========
 
  chkerr
  Netcdf Error in read_obfbdata
  at line number     1815
 NetCDF: Not a valid ID
 
 
  ===>>> : E R R O R
 
          ===========
 
  chkerr
  Netcdf Error in read_obfbdata
  at line number     1817
 NetCDF: Not a valid ID
 
 
  ===>>> : E R R O R
 
          ===========
 
  chkerr
  Netcdf Error in read_obfbdata
  at line number     1819
 NetCDF: Not a valid ID
 
 
  ===>>> : E R R O R
 
          ===========
 
  chkerr
  Netcdf Error in read_obfbdata
  at line number     1821
 NetCDF: Not a valid ID
 
 
  ===>>> : E R R O R
 
          ===========
 
  chkerr
  Netcdf Error in read_obfbdata
  at line number     1823
 NetCDF: Not a valid ID
 
 
  ===>>> : E R R O R
 
          ===========
 
  chkerr
  Netcdf Error in read_obfbdata
  at line number     1825
 NetCDF: Not a valid ID
 
 
  ===>>> : E R R O R
 
          ===========
 
  chkerr
  Netcdf Error in read_obfbdata
  at line number     1827
 NetCDF: Not a valid ID
 
 
  ===>>> : E R R O R
 
          ===========
 
  chkerr
  Netcdf Error in read_obfbdata
  at line number     1835
 NetCDF: Not a valid ID
 
 
  ===>>> : E R R O R
 
          ===========
 
  chkerr
  Netcdf Error in read_obfbdata
  at line number     1838
 NetCDF: Not a valid ID
 
 
  ===>>> : E R R O R
 
          ===========
 
  chkerr
  Netcdf Error in getvaratt_obfbdata
  at line number     1990
 NetCDF: Not a valid ID
 
 
  ===>>> : E R R O R
 
          ===========
 
  chkerr
  Netcdf Error in getvaratt_obfbdata
  at line number     1994
 NetCDF: Not a valid ID
 
 
  ===>>> : E R R O R
 
          ===========
 
  chkerr
  Netcdf Error in read_obfbdata
  at line number     1860
 NetCDF: Not a valid ID
 
 
  ===>>> : E R R O R
 
          ===========
 
  chkerr
  Netcdf Error in read_obfbdata
  at line number     1863
 NetCDF: Not a valid ID
 
 
  ===>>> : E R R O R
 
          ===========
 
  chkerr
  Netcdf Error in read_obfbdata
  at line number     1866
 NetCDF: Not a valid ID
 
 
  ===>>> : E R R O R
 
          ===========
 
  chkerr
  Netcdf Error in read_obfbdata
  at line number     1869
 NetCDF: Not a valid ID
 
 
  ===>>> : E R R O R
 
          ===========
 
  chkerr
  Netcdf Error in read_obfbdata
  at line number     1872
 NetCDF: Not a valid ID
 
 
  ===>>> : E R R O R
 
          ===========
 
  chkerr
  Netcdf Error in read_obfbdata
  at line number     1875
 NetCDF: Not a valid ID
 
 
  ===>>> : E R R O R
 
          ===========
 
  chkerr
  Netcdf Error in read_obfbdata
  at line number     1878
 NetCDF: Not a valid ID
 
 
  ===>>> : E R R O R
 
          ===========
 
  chkerr
  Netcdf Error in read_obfbdata
  at line number     1881
 NetCDF: Not a valid ID
 
 
  ===>>> : E R R O R
 
          ===========
 
  chkerr
  Netcdf Error in read_obfbdata
  at line number     1835
 NetCDF: Not a valid ID
 
 
  ===>>> : E R R O R
 
          ===========
 
  chkerr
  Netcdf Error in read_obfbdata
  at line number     1838
 NetCDF: Not a valid ID
 
 
  ===>>> : E R R O R
 
          ===========
 
  chkerr
  Netcdf Error in getvaratt_obfbdata
  at line number     1990
 NetCDF: Not a valid ID
 
 
  ===>>> : E R R O R
 
          ===========
 
  chkerr
  Netcdf Error in getvaratt_obfbdata
  at line number     1994
 NetCDF: Not a valid ID
 
 
  ===>>> : E R R O R
 
          ===========
 
  chkerr
  Netcdf Error in read_obfbdata
  at line number     1860
 NetCDF: Not a valid ID
 
 
  ===>>> : E R R O R
 
          ===========
 
  chkerr
  Netcdf Error in read_obfbdata
  at line number     1863
 NetCDF: Not a valid ID
 
 
  ===>>> : E R R O R
 
          ===========
 
  chkerr
  Netcdf Error in read_obfbdata
  at line number     1866
 NetCDF: Not a valid ID
 
 
  ===>>> : E R R O R
 
          ===========
 
  chkerr
  Netcdf Error in read_obfbdata
  at line number     1869
 NetCDF: Not a valid ID
 
 
  ===>>> : E R R O R
 
          ===========
 
  chkerr
  Netcdf Error in read_obfbdata
  at line number     1872
 NetCDF: Not a valid ID
 
 
  ===>>> : E R R O R
 
          ===========
 
  chkerr
  Netcdf Error in read_obfbdata
  at line number     1875
 NetCDF: Not a valid ID
 
 
  ===>>> : E R R O R
 
          ===========
 
  chkerr
  Netcdf Error in read_obfbdata
  at line number     1878
 NetCDF: Not a valid ID
 
 
  ===>>> : E R R O R
 
          ===========
 
  chkerr
  Netcdf Error in read_obfbdata
  at line number     1881
 NetCDF: Not a valid ID
 
 
  ===>>> : E R R O R
 
          ===========
 
  chkerr
  Netcdf Error in read_obfbdata
  at line number     1835
 NetCDF: Not a valid ID
 
 
  ===>>> : E R R O R
 
          ===========
 
  chkerr
  Netcdf Error in read_obfbdata
  at line number     1838
 NetCDF: Not a valid ID
 
 
  ===>>> : E R R O R
 
          ===========
 
  chkerr
  Netcdf Error in getvaratt_obfbdata
  at line number     1990
 NetCDF: Not a valid ID
 
 
  ===>>> : E R R O R
 
          ===========
 
  chkerr
  Netcdf Error in getvaratt_obfbdata
  at line number     1994
 NetCDF: Not a valid ID
 
 
  ===>>> : E R R O R
 
          ===========
 
  chkerr
  Netcdf Error in read_obfbdata
  at line number     1860
 NetCDF: Not a valid ID
 
 
  ===>>> : E R R O R
 
          ===========
 
  chkerr
  Netcdf Error in read_obfbdata
  at line number     1863
 NetCDF: Not a valid ID
 
 
  ===>>> : E R R O R
 
          ===========
 
  chkerr
  Netcdf Error in read_obfbdata
  at line number     1866
 NetCDF: Not a valid ID
 
 
  ===>>> : E R R O R
 
          ===========
 
  chkerr
  Netcdf Error in read_obfbdata
  at line number     1869
 NetCDF: Not a valid ID
 
 
  ===>>> : E R R O R
 
          ===========
 
  chkerr
  Netcdf Error in read_obfbdata
  at line number     1872
 NetCDF: Not a valid ID
 
 
  ===>>> : E R R O R
 
          ===========
 
  chkerr
  Netcdf Error in read_obfbdata
  at line number     1875
 NetCDF: Not a valid ID
 
 
  ===>>> : E R R O R
 
          ===========
 
  chkerr
  Netcdf Error in read_obfbdata
  at line number     1878
 NetCDF: Not a valid ID
 
 
  ===>>> : E R R O R
 
          ===========
 
  chkerr
  Netcdf Error in read_obfbdata
  at line number     1881
 NetCDF: Not a valid ID
 
 
  ===>>> : E R R O R
 
          ===========
 
  chkerr
  Netcdf Error in read_obfbdata
  at line number     1835
 NetCDF: Not a valid ID
 
 
  ===>>> : E R R O R
 
          ===========
 
  chkerr
  Netcdf Error in read_obfbdata
  at line number     1838
 NetCDF: Not a valid ID
 
 
  ===>>> : E R R O R
 
          ===========
 
  chkerr
  Netcdf Error in getvaratt_obfbdata
  at line number     1990
 NetCDF: Not a valid ID
 
 
  ===>>> : E R R O R
 
          ===========
 
  chkerr
  Netcdf Error in getvaratt_obfbdata
  at line number     1994
 NetCDF: Not a valid ID
 
 
  ===>>> : E R R O R
 
          ===========
 
  chkerr
  Netcdf Error in read_obfbdata
  at line number     1860
 NetCDF: Not a valid ID
 
 
  ===>>> : E R R O R
 
          ===========
 
  chkerr
  Netcdf Error in read_obfbdata
  at line number     1863
 NetCDF: Not a valid ID
 
 
  ===>>> : E R R O R
 
          ===========
 
  chkerr
  Netcdf Error in read_obfbdata
  at line number     1866
 NetCDF: Not a valid ID
 
 
  ===>>> : E R R O R
 
          ===========
 
  chkerr
  Netcdf Error in read_obfbdata
  at line number     1869
 NetCDF: Not a valid ID
 
 
  ===>>> : E R R O R
 
          ===========
 
  chkerr
  Netcdf Error in read_obfbdata
  at line number     1872
 NetCDF: Not a valid ID
 
 
  ===>>> : E R R O R
 
          ===========
 
  chkerr
  Netcdf Error in read_obfbdata
  at line number     1875
 NetCDF: Not a valid ID
 
 
  ===>>> : E R R O R
 
          ===========
 
  chkerr
  Netcdf Error in read_obfbdata
  at line number     1878
 NetCDF: Not a valid ID
 
 
  ===>>> : E R R O R
 
          ===========
 
  chkerr
  Netcdf Error in read_obfbdata
  at line number     1881
 NetCDF: Not a valid ID
 
 
  ===>>> : E R R O R
 
          ===========
 
  chkerr
  Netcdf Error in read_obfbdata
  at line number     1835
 NetCDF: Not a valid ID
 
 
  ===>>> : E R R O R
 
          ===========
 
  chkerr
  Netcdf Error in read_obfbdata
  at line number     1838
 NetCDF: Not a valid ID
 
 
  ===>>> : E R R O R
 
          ===========
 
  chkerr
  Netcdf Error in getvaratt_obfbdata
  at line number     1990
 NetCDF: Not a valid ID
 
 
  ===>>> : E R R O R
 
          ===========
 
  chkerr
  Netcdf Error in getvaratt_obfbdata
  at line number     1994
 NetCDF: Not a valid ID
 
 
  ===>>> : E R R O R
 
          ===========
 
  chkerr
  Netcdf Error in read_obfbdata
  at line number     1860
 NetCDF: Not a valid ID
 
 
  ===>>> : E R R O R
 
          ===========
 
  chkerr
  Netcdf Error in read_obfbdata
  at line number     1863
 NetCDF: Not a valid ID
 
 
  ===>>> : E R R O R
 
          ===========
 
  chkerr
  Netcdf Error in read_obfbdata
  at line number     1866
 NetCDF: Not a valid ID
 
 
  ===>>> : E R R O R
 
          ===========
 
  chkerr
  Netcdf Error in read_obfbdata
  at line number     1869
 NetCDF: Not a valid ID
 
 
  ===>>> : E R R O R
 
          ===========
 
  chkerr
  Netcdf Error in read_obfbdata
  at line number     1872
 NetCDF: Not a valid ID
 
 
  ===>>> : E R R O R
 
          ===========
 
  chkerr
  Netcdf Error in read_obfbdata
  at line number     1875
 NetCDF: Not a valid ID
 
 
  ===>>> : E R R O R
 
          ===========
 
  chkerr
  Netcdf Error in read_obfbdata
  at line number     1878
 NetCDF: Not a valid ID
 
 
  ===>>> : E R R O R
 
          ===========
 
  chkerr
  Netcdf Error in read_obfbdata
  at line number     1881
 NetCDF: Not a valid ID
 
 
  ===>>> : E R R O R
 
          ===========
 
  chkerr
  Netcdf Error in read_obfbdata
  at line number     1835
 NetCDF: Not a valid ID
 
 
  ===>>> : E R R O R
 
          ===========
 
  chkerr
  Netcdf Error in read_obfbdata
  at line number     1838
 NetCDF: Not a valid ID
 
 
  ===>>> : E R R O R
 
          ===========
 
  chkerr
  Netcdf Error in getvaratt_obfbdata
  at line number     1990
 NetCDF: Not a valid ID
 
 
  ===>>> : E R R O R
 
          ===========
 
  chkerr
  Netcdf Error in getvaratt_obfbdata
  at line number     1994
 NetCDF: Not a valid ID
 
 
  ===>>> : E R R O R
 
          ===========
 
  chkerr
  Netcdf Error in read_obfbdata
  at line number     1860
 NetCDF: Not a valid ID
 
 
  ===>>> : E R R O R
 
          ===========
 
  chkerr
  Netcdf Error in read_obfbdata
  at line number     1863
 NetCDF: Not a valid ID
 
 
  ===>>> : E R R O R
 
          ===========
 
  chkerr
  Netcdf Error in read_obfbdata
  at line number     1866
 NetCDF: Not a valid ID
 
 
  ===>>> : E R R O R
 
          ===========
 
  chkerr
  Netcdf Error in read_obfbdata
  at line number     1869
 NetCDF: Not a valid ID
 
 
  ===>>> : E R R O R
 
          ===========
 
  chkerr
  Netcdf Error in read_obfbdata
  at line number     1872
 NetCDF: Not a valid ID
 
 
  ===>>> : E R R O R
 
          ===========
 
  chkerr
  Netcdf Error in read_obfbdata
  at line number     1875
 NetCDF: Not a valid ID
 
 
  ===>>> : E R R O R
 
          ===========
 
  chkerr
  Netcdf Error in read_obfbdata
  at line number     1878
 NetCDF: Not a valid ID
 
 
  ===>>> : E R R O R
 
          ===========
 
  chkerr
  Netcdf Error in read_obfbdata
  at line number     1881
 NetCDF: Not a valid ID
 
 
  ===>>> : E R R O R
 
          ===========
 
  chkerr
  Netcdf Error in read_obfbdata
  at line number     1835
 NetCDF: Not a valid ID
 
 
  ===>>> : E R R O R
 
          ===========
 
  chkerr
  Netcdf Error in read_obfbdata
  at line number     1838
 NetCDF: Not a valid ID
 
 
  ===>>> : E R R O R
 
          ===========
 
  chkerr
  Netcdf Error in getvaratt_obfbdata
  at line number     1990
 NetCDF: Not a valid ID
 
 
  ===>>> : E R R O R
 
          ===========
 
  chkerr
  Netcdf Error in getvaratt_obfbdata
  at line number     1994
 NetCDF: Not a valid ID
 
 
  ===>>> : E R R O R
 
          ===========
 
  chkerr
  Netcdf Error in read_obfbdata
  at line number     1860
 NetCDF: Not a valid ID
 
 
  ===>>> : E R R O R
 
          ===========
 
  chkerr
  Netcdf Error in read_obfbdata
  at line number     1863
 NetCDF: Not a valid ID
 
 
  ===>>> : E R R O R
 
          ===========
 
  chkerr
  Netcdf Error in read_obfbdata
  at line number     1866
 NetCDF: Not a valid ID
 
 
  ===>>> : E R R O R
 
          ===========
 
  chkerr
  Netcdf Error in read_obfbdata
  at line number     1869
 NetCDF: Not a valid ID
 
 
  ===>>> : E R R O R
 
          ===========
 
  chkerr
  Netcdf Error in read_obfbdata
  at line number     1872
 NetCDF: Not a valid ID
 
 
  ===>>> : E R R O R
 
          ===========
 
  chkerr
  Netcdf Error in read_obfbdata
  at line number     1875
 NetCDF: Not a valid ID
 
 
  ===>>> : E R R O R
 
          ===========
 
  chkerr
  Netcdf Error in read_obfbdata
  at line number     1878
 NetCDF: Not a valid ID
 
 
  ===>>> : E R R O R
 
          ===========
 
  chkerr
  Netcdf Error in read_obfbdata
  at line number     1881
 NetCDF: Not a valid ID
 
 
  ===>>> : E R R O R
 
          ===========
 
  chkerr
  Netcdf Error in read_obfbdata
  at line number     1965
 NetCDF: Not a valid ID
 
